Version 4.1
SHEET 1 1520 756
WIRE 320 -560 160 -560
WIRE 320 -496 320 -560
WIRE 160 -448 160 -560
WIRE 320 -304 320 -416
WIRE 320 -304 240 -304
WIRE 528 -304 320 -304
WIRE 368 -128 336 -128
WIRE 336 -96 336 -128
WIRE 336 -96 272 -96
WIRE 400 -96 336 -96
WIRE -352 -80 -352 -112
WIRE -352 -80 -432 -80
WIRE -224 -80 -352 -80
WIRE -176 -80 -224 -80
WIRE -64 -80 -96 -80
WIRE 176 -80 -64 -80
WIRE -224 -64 -224 -80
WIRE -64 -64 -64 -80
WIRE 176 -64 176 -80
WIRE 400 -64 400 -96
WIRE 400 -64 384 -64
WIRE 448 -64 400 -64
WIRE 768 -48 768 -112
WIRE 768 -48 592 -48
WIRE 784 -48 768 -48
WIRE 448 -32 448 -64
WIRE 176 0 112 0
WIRE 176 32 176 0
WIRE 240 32 240 -304
WIRE 272 32 272 -96
WIRE 592 32 592 -48
WIRE -224 48 -224 0
WIRE -144 48 -224 48
WIRE -64 48 -64 0
WIRE -64 48 -144 48
WIRE 384 48 384 -64
WIRE 448 64 448 48
WIRE 528 64 528 -304
WIRE 528 64 448 64
WIRE 448 80 448 64
WIRE 784 128 784 -48
WIRE 112 176 -16 176
WIRE 176 176 176 112
WIRE 176 176 112 176
WIRE 384 192 384 112
WIRE 400 192 384 192
WIRE 448 192 448 160
WIRE 448 192 400 192
WIRE 208 224 208 112
WIRE 272 224 272 112
WIRE 336 224 272 224
WIRE 400 224 400 192
WIRE 400 224 336 224
WIRE -432 240 -432 -80
WIRE 336 256 336 224
WIRE 352 256 336 256
WIRE 112 288 112 176
WIRE 240 288 240 112
WIRE 240 288 208 288
WIRE -16 320 -16 176
WIRE -432 464 -432 320
WIRE -144 464 -144 48
WIRE -144 464 -432 464
WIRE 112 464 112 352
WIRE 112 464 -144 464
WIRE 176 464 112 464
WIRE 240 464 240 288
WIRE 240 464 176 464
WIRE 592 464 592 112
WIRE 592 464 240 464
WIRE 784 464 784 208
WIRE 784 464 592 464
WIRE 176 480 176 464
WIRE -16 544 -16 400
WIRE -16 640 -16 624
FLAG 160 -448 0
FLAG 176 480 0
FLAG 768 -112 MC1350#1-out
IOPIN 768 -112 Out
FLAG -352 -112 MC1350#1-in
IOPIN -352 -112 In
FLAG -16 640 0
FLAG 112 0 Vin
IOPIN 112 0 Out
FLAG 368 -128 Vout1
IOPIN 368 -128 Out
FLAG 352 256 Vout2
IOPIN 352 256 Out
SYMBOL voltage 320 -400 R180
WINDOW 123 0 0 Left 0
WINDOW 39 0 0 Left 0
SYMATTR InstName V1
SYMATTR Value 12
SYMBOL voltage -432 224 R0
WINDOW 123 -59 -64 Left 2
WINDOW 39 -69 -39 Left 2
SYMATTR Value2 AC 0.00035566
SYMATTR SpiceLine Rser=50
SYMATTR InstName V2
SYMATTR Value ""
SYMBOL ind 432 64 R0
SYMATTR InstName L1
SYMATTR Value 3µH
SYMBOL cap 400 112 R180
WINDOW 0 24 56 Left 2
WINDOW 3 24 8 Left 2
SYMATTR InstName C3
SYMATTR Value 33pF
SYMBOL voltage -16 528 R0
WINDOW 123 0 0 Left 0
WINDOW 39 0 0 Left 0
SYMATTR InstName V3
SYMATTR Value {Vagc}
SYMBOL res 768 112 R0
SYMATTR InstName R4
SYMATTR Value 50
SYMBOL RF\ signal\ amps\\MC1350_v1 224 64 R90
SYMATTR InstName X1
SYMBOL ind 432 -48 R0
SYMATTR InstName L2
SYMATTR Value 3µH
SYMBOL ind 576 16 R0
SYMATTR InstName L3
SYMATTR Value 1µH
SYMBOL cap 160 -64 R0
SYMATTR InstName C1
SYMATTR Value 1n
SYMBOL cap -80 -64 R0
SYMATTR InstName C2
SYMATTR Value 37pF
SYMBOL cap -240 -64 R0
SYMATTR InstName C4
SYMATTR Value 200pF
SYMBOL ind -192 -64 R270
WINDOW 0 32 56 VTop 2
WINDOW 3 5 56 VBottom 2
SYMATTR InstName L4
SYMATTR Value 4.6µH
SYMBOL cap 224 224 M0
SYMATTR InstName C5
SYMATTR Value 0.05µF
SYMBOL cap 128 288 M0
SYMATTR InstName C6
SYMATTR Value 0.05µF
SYMBOL res 0 304 M0
SYMATTR InstName R1
SYMATTR Value 5.1k
TEXT -368 -392 Left 2 !.ac lin 251 10000000 100000000
TEXT 656 -368 Left 2 !.param Vagc=0
TEXT 456 248 Left 2 !K L1 L2 L3 1
